# MODFLOW Basic Package created by RMODFLOW, version 0.4.0.9000 
# 
FREE 
INTERNAL 1 (free) -1
-1 -1 -1 -1 -1 -1 -1 -1 -1 -1
-1 1 1 1 1 1 1 1 1 -1
-1 1 1 1 1 1 1 1 1 -1
-1 1 1 1 1 1 1 1 1 -1
-1 1 1 1 1 1 1 1 1 -1
-1 1 1 1 1 1 1 1 1 -1
-1 1 1 1 1 1 1 1 1 -1
-1 1 1 1 1 1 1 1 1 -1
-1 1 1 1 1 1 1 1 1 -1
-1 -1 -1 -1 -1 -1 -1 -1 -1 -1
-999
CONSTANT 0
