# MODFLOW Output Control Option File created by RMODFLOW, version 0.4.0.9000 
# 
HEAD SAVE UNIT 66 
HEAD SAVE FORMAT (20F10.3) LABEL 
COMPACT BUDGET  
PERIOD 1 STEP 1
PRINT BUDGET
SAVE HEAD
SAVE BUDGET
PERIOD 2 STEP 1
PRINT BUDGET
SAVE HEAD
SAVE BUDGET
PERIOD 2 STEP 2
PRINT BUDGET
SAVE HEAD
SAVE BUDGET
PERIOD 2 STEP 3
PRINT BUDGET
SAVE HEAD
SAVE BUDGET
PERIOD 2 STEP 4
PRINT BUDGET
SAVE HEAD
SAVE BUDGET
PERIOD 2 STEP 5
PRINT BUDGET
SAVE HEAD
SAVE BUDGET
PERIOD 2 STEP 6
PRINT BUDGET
SAVE HEAD
SAVE BUDGET
PERIOD 2 STEP 7
PRINT BUDGET
SAVE HEAD
SAVE BUDGET
PERIOD 2 STEP 8
PRINT BUDGET
SAVE HEAD
SAVE BUDGET
PERIOD 2 STEP 9
PRINT BUDGET
SAVE HEAD
SAVE BUDGET
PERIOD 2 STEP 10
PRINT BUDGET
SAVE HEAD
SAVE BUDGET
PERIOD 2 STEP 11
PRINT BUDGET
SAVE HEAD
SAVE BUDGET
PERIOD 2 STEP 12
PRINT BUDGET
SAVE HEAD
SAVE BUDGET
PERIOD 2 STEP 13
PRINT BUDGET
SAVE HEAD
SAVE BUDGET
PERIOD 2 STEP 14
PRINT BUDGET
SAVE HEAD
SAVE BUDGET
PERIOD 2 STEP 15
PRINT BUDGET
SAVE HEAD
SAVE BUDGET
PERIOD 2 STEP 16
PRINT BUDGET
SAVE HEAD
SAVE BUDGET
PERIOD 2 STEP 17
PRINT BUDGET
SAVE HEAD
SAVE BUDGET
PERIOD 2 STEP 18
PRINT BUDGET
SAVE HEAD
SAVE BUDGET
PERIOD 2 STEP 19
PRINT BUDGET
SAVE HEAD
SAVE BUDGET
PERIOD 2 STEP 20
PRINT BUDGET
SAVE HEAD
SAVE BUDGET
PERIOD 2 STEP 21
PRINT BUDGET
SAVE HEAD
SAVE BUDGET
PERIOD 2 STEP 22
PRINT BUDGET
SAVE HEAD
SAVE BUDGET
PERIOD 2 STEP 23
PRINT BUDGET
SAVE HEAD
SAVE BUDGET
PERIOD 2 STEP 24
PRINT BUDGET
SAVE HEAD
SAVE BUDGET
PERIOD 2 STEP 25
PRINT BUDGET
SAVE HEAD
SAVE BUDGET
PERIOD 2 STEP 26
PRINT BUDGET
SAVE HEAD
SAVE BUDGET
PERIOD 2 STEP 27
PRINT BUDGET
SAVE HEAD
SAVE BUDGET
PERIOD 2 STEP 28
PRINT BUDGET
SAVE HEAD
SAVE BUDGET
PERIOD 2 STEP 29
PRINT BUDGET
SAVE HEAD
SAVE BUDGET
PERIOD 2 STEP 30
PRINT BUDGET
SAVE HEAD
SAVE BUDGET
PERIOD 2 STEP 31
PRINT BUDGET
SAVE HEAD
SAVE BUDGET
PERIOD 2 STEP 32
PRINT BUDGET
SAVE HEAD
SAVE BUDGET
PERIOD 2 STEP 33
PRINT BUDGET
SAVE HEAD
SAVE BUDGET
PERIOD 2 STEP 34
PRINT BUDGET
SAVE HEAD
SAVE BUDGET
PERIOD 2 STEP 35
PRINT BUDGET
SAVE HEAD
SAVE BUDGET
PERIOD 2 STEP 36
PRINT BUDGET
SAVE HEAD
SAVE BUDGET
PERIOD 2 STEP 37
PRINT BUDGET
SAVE HEAD
SAVE BUDGET
PERIOD 2 STEP 38
PRINT BUDGET
SAVE HEAD
SAVE BUDGET
PERIOD 2 STEP 39
PRINT BUDGET
SAVE HEAD
SAVE BUDGET
PERIOD 2 STEP 40
PRINT BUDGET
SAVE HEAD
SAVE BUDGET
PERIOD 2 STEP 41
PRINT BUDGET
SAVE HEAD
SAVE BUDGET
PERIOD 2 STEP 42
PRINT BUDGET
SAVE HEAD
SAVE BUDGET
PERIOD 2 STEP 43
PRINT BUDGET
SAVE HEAD
SAVE BUDGET
PERIOD 2 STEP 44
PRINT BUDGET
SAVE HEAD
SAVE BUDGET
PERIOD 2 STEP 45
PRINT BUDGET
SAVE HEAD
SAVE BUDGET
PERIOD 2 STEP 46
PRINT BUDGET
SAVE HEAD
SAVE BUDGET
PERIOD 2 STEP 47
PRINT BUDGET
SAVE HEAD
SAVE BUDGET
PERIOD 2 STEP 48
PRINT BUDGET
SAVE HEAD
SAVE BUDGET
PERIOD 2 STEP 49
PRINT BUDGET
SAVE HEAD
SAVE BUDGET
PERIOD 2 STEP 50
PRINT BUDGET
SAVE HEAD
SAVE BUDGET
PERIOD 2 STEP 51
PRINT BUDGET
SAVE HEAD
SAVE BUDGET
PERIOD 2 STEP 52
PRINT BUDGET
SAVE HEAD
SAVE BUDGET
PERIOD 2 STEP 53
PRINT BUDGET
SAVE HEAD
SAVE BUDGET
PERIOD 2 STEP 54
PRINT BUDGET
SAVE HEAD
SAVE BUDGET
PERIOD 2 STEP 55
PRINT BUDGET
SAVE HEAD
SAVE BUDGET
PERIOD 2 STEP 56
PRINT BUDGET
SAVE HEAD
SAVE BUDGET
PERIOD 2 STEP 57
PRINT BUDGET
SAVE HEAD
SAVE BUDGET
PERIOD 2 STEP 58
PRINT BUDGET
SAVE HEAD
SAVE BUDGET
PERIOD 2 STEP 59
PRINT BUDGET
SAVE HEAD
SAVE BUDGET
PERIOD 2 STEP 60
PRINT BUDGET
SAVE HEAD
SAVE BUDGET
PERIOD 2 STEP 61
PRINT BUDGET
SAVE HEAD
SAVE BUDGET
PERIOD 2 STEP 62
PRINT BUDGET
SAVE HEAD
SAVE BUDGET
PERIOD 2 STEP 63
PRINT BUDGET
SAVE HEAD
SAVE BUDGET
PERIOD 2 STEP 64
PRINT BUDGET
SAVE HEAD
SAVE BUDGET
PERIOD 2 STEP 65
PRINT BUDGET
SAVE HEAD
SAVE BUDGET
PERIOD 2 STEP 66
PRINT BUDGET
SAVE HEAD
SAVE BUDGET
PERIOD 2 STEP 67
PRINT BUDGET
SAVE HEAD
SAVE BUDGET
PERIOD 2 STEP 68
PRINT BUDGET
SAVE HEAD
SAVE BUDGET
PERIOD 2 STEP 69
PRINT BUDGET
SAVE HEAD
SAVE BUDGET
PERIOD 2 STEP 70
PRINT BUDGET
SAVE HEAD
SAVE BUDGET
PERIOD 2 STEP 71
PRINT BUDGET
SAVE HEAD
SAVE BUDGET
PERIOD 2 STEP 72
PRINT BUDGET
SAVE HEAD
SAVE BUDGET
PERIOD 2 STEP 73
PRINT BUDGET
SAVE HEAD
SAVE BUDGET
PERIOD 2 STEP 74
PRINT BUDGET
SAVE HEAD
SAVE BUDGET
PERIOD 2 STEP 75
PRINT BUDGET
SAVE HEAD
SAVE BUDGET
PERIOD 2 STEP 76
PRINT BUDGET
SAVE HEAD
SAVE BUDGET
PERIOD 2 STEP 77
PRINT BUDGET
SAVE HEAD
SAVE BUDGET
PERIOD 2 STEP 78
PRINT BUDGET
SAVE HEAD
SAVE BUDGET
PERIOD 2 STEP 79
PRINT BUDGET
SAVE HEAD
SAVE BUDGET
PERIOD 2 STEP 80
PRINT BUDGET
SAVE HEAD
SAVE BUDGET
PERIOD 2 STEP 81
PRINT BUDGET
SAVE HEAD
SAVE BUDGET
PERIOD 2 STEP 82
PRINT BUDGET
SAVE HEAD
SAVE BUDGET
PERIOD 2 STEP 83
PRINT BUDGET
SAVE HEAD
SAVE BUDGET
PERIOD 2 STEP 84
PRINT BUDGET
SAVE HEAD
SAVE BUDGET
PERIOD 2 STEP 85
PRINT BUDGET
SAVE HEAD
SAVE BUDGET
PERIOD 2 STEP 86
PRINT BUDGET
SAVE HEAD
SAVE BUDGET
PERIOD 2 STEP 87
PRINT BUDGET
SAVE HEAD
SAVE BUDGET
PERIOD 2 STEP 88
PRINT BUDGET
SAVE HEAD
SAVE BUDGET
PERIOD 2 STEP 89
PRINT BUDGET
SAVE HEAD
SAVE BUDGET
PERIOD 2 STEP 90
PRINT BUDGET
SAVE HEAD
SAVE BUDGET
PERIOD 2 STEP 91
PRINT BUDGET
SAVE HEAD
SAVE BUDGET
PERIOD 2 STEP 92
PRINT BUDGET
SAVE HEAD
SAVE BUDGET
PERIOD 2 STEP 93
PRINT BUDGET
SAVE HEAD
SAVE BUDGET
PERIOD 2 STEP 94
PRINT BUDGET
SAVE HEAD
SAVE BUDGET
PERIOD 2 STEP 95
PRINT BUDGET
SAVE HEAD
SAVE BUDGET
PERIOD 2 STEP 96
PRINT BUDGET
SAVE HEAD
SAVE BUDGET
PERIOD 2 STEP 97
PRINT BUDGET
SAVE HEAD
SAVE BUDGET
PERIOD 2 STEP 98
PRINT BUDGET
SAVE HEAD
SAVE BUDGET
PERIOD 2 STEP 99
PRINT BUDGET
SAVE HEAD
SAVE BUDGET
PERIOD 2 STEP 100
PRINT BUDGET
SAVE HEAD
SAVE BUDGET
